 &GCHEM_PARM01
  useCFC=.TRUE.,
  nsubtime=1,
 &
 &GCHEM_PARM02
 &
